/*--------------------------------*- C++ -*----------------------------------*\
  =========                 |
  \\      /  F ield         | OpenFOAM: The Open Source CFD Toolbox
   \\    /   O peration     | Website:  https://openfoam.org
    \\  /    A nd           | Version:  9
     \\/     M anipulation  |
\*---------------------------------------------------------------------------*/
FoamFile
{
    format      ascii;
    class       dictionary;
    object      snappyHexMeshDict;
}
// * * * * * * * * * * * * * * * * * * * * * * * * * * * * * * * * * * * * * //

#includeEtc     "caseDicts/mesh/generation/snappyHexMeshDict.cfg"

castellatedMesh on;
snap            on;
addLayers       off;

geometry
{
    tank
    {
        type triSurfaceMesh;
        file "tank.stl";
    }

    baffles
    {
        type triSurfaceMesh;
        file "baffles.stl";
    }

    fluidSurface
    {
        type triSurfaceMesh;
        file "fluidSurface.stl";
    }

    shaft
    {
        type triSurfaceMesh;
        file "shaft.stl";
    }

    stirrer
    {
        type triSurfaceMesh;
        file "rushton.stl";
    }
};

castellatedMeshControls
{
    features
    (
//      { file "CAD.eMesh"; level 1; }
    );

    refinementSurfaces
    {
        tank
        {
            level (0 0);
            patchInfo
            {
                type wall;
            }
        }

        baffles
        {
            level (1 2);
            patchInfo
            {
                type wall;
            }
        }

        fluidSurface
        {
            level (0 0);
            patchInfo
            {
                type wall;
            }
        }

        shaft
        {
            level (2 2);
            patchInfo
            {
                type wall;
            }
        }

        stirrer
        {
            level (2 3);
            patchInfo
            {
                type wall;
            }
        }
    }

    refinementRegions
    {
        // CAD
        // {
        //     mode    inside;
        //     level   2;
        // }
    }

    locationInMesh (0 0 0);
    nCellsBetweenLevels 3;
}

snapControls
{
//  explicitFeatureSnap    true;
//  implicitFeatureSnap    false;
}

addLayersControls
{
    layers
    {
        "CAD.*"
        {
            nSurfaceLayers 2;
        }
    }

    relativeSizes       true; // false, usually with firstLayerThickness
    expansionRatio      1.2;
    finalLayerThickness 0.5;
    minThickness        1e-3;
//  firstLayerThickness 0.01;

//  maxThicknessToMedialRatio 0.6;
}

writeFlags
(
//    scalarLevels
    layerSets
    layerFields
);

mergeTolerance 1e-6;

// ************************************************************************* //
